/*---------------------------------------------------------------------------*\
| =========                 |                                                 |
| \\      /  F ield         | OpenFOAM: The Open Source CFD Toolbox           |
|  \\    /   O peration     | Version:  v1712                                 |
|   \\  /    A nd           | Web:      www.OpenFOAM.com                      |
|    \\/     M anipulation  |                                                 |
\*---------------------------------------------------------------------------*/
Build  : v1712
Arch   : "LSB;label=32;scalar=64"
Exec   : rhoPimpleFoam
Date   : Jul 26 2018
Time   : 12:45:21
Host   : "Pavilion-g4"
PID    : 2595
I/O    : uncollated
Case   : /home/user_name/OpenFOAM/user_name-v1712/run/simulation2D_v0.2
nProcs : 1
trapFpe: Floating point exception trapping enabled (FOAM_SIGFPE).
fileModificationChecking : Monitoring run-time modified files using timeStampMaster (fileModificationSkew 10)
allowSystemOperations : Allowing user-supplied system call operations

// * * * * * * * * * * * * * * * * * * * * * * * * * * * * * * * * * * * * * //
Create time

Create mesh for time = 0


PIMPLE: Operating solver in PISO mode

Reading thermophysical properties

Selecting thermodynamics package 
{
    type            hePsiThermo;
    mixture         pureMixture;
    transport       const;
    thermo          hConst;
    equationOfState perfectGas;
    specie          specie;
    energy          sensibleEnthalpy;
}

Reading field U

Reading/calculating face flux field phi

pressureControl
    pMax 120000
    pMin 80000

Creating turbulence model

Selecting turbulence model type RAS
Selecting RAS turbulence model kOmegaSST
Selecting patchDistMethod meshWave
RAS
{
    RASModel        kOmegaSST;
    turbulence      on;
    printCoeffs     on;
    alphaK1         0.85;
    alphaK2         1;
    alphaOmega1     0.5;
    alphaOmega2     0.856;
    gamma1          0.555556;
    gamma2          0.44;
    beta1           0.075;
    beta2           0.0828;
    betaStar        0.09;
    a1              0.31;
    b1              1;
    c1              10;
    F3              false;
    decayControl    false;
    kInf            0;
    omegaInf        0;
}

Creating field dpdt

Creating field kinetic energy K

No MRF models present

Creating finite volume options from "system/fvOptions"

Selecting finite volume options type scalarSemiImplicitSource
    Source: heatSource
    - selecting cells using cellZone heatSourceZone
    - selected 80 cell(s) with volume 0.7

#0  Foam::error::printStack(Foam::Ostream&) at ??:?
#1  Foam::sigFpe::sigHandler(int) at ??:?
#2  ? in "/lib/x86_64-linux-gnu/libc.so.6"
#3  Foam::divide(Foam::Field<double>&, Foam::UList<double> const&, Foam::UList<double> const&) at ??:?
#4  Foam::tmp<Foam::GeometricField<double, Foam::fvPatchField, Foam::volMesh> > Foam::operator/<Foam::fvPatchField, Foam::volMesh>(Foam::tmp<Foam::GeometricField<double, Foam::fvPatchField, Foam::volMesh> > const&, Foam::GeometricField<double, Foam::fvPatchField, Foam::volMesh> const&) at ??:?
#5  Foam::kOmegaSSTBase<Foam::eddyViscosity<Foam::RASModel<Foam::EddyDiffusivity<Foam::ThermalDiffusivity<Foam::CompressibleTurbulenceModel<Foam::fluidThermo> > > > > >::F2() const at ??:?
#6  Foam::kOmegaSSTBase<Foam::eddyViscosity<Foam::RASModel<Foam::EddyDiffusivity<Foam::ThermalDiffusivity<Foam::CompressibleTurbulenceModel<Foam::fluidThermo> > > > > >::F23() const at ??:?
#7  Foam::kOmegaSSTBase<Foam::eddyViscosity<Foam::RASModel<Foam::EddyDiffusivity<Foam::ThermalDiffusivity<Foam::CompressibleTurbulenceModel<Foam::fluidThermo> > > > > >::correctNut(Foam::GeometricField<double, Foam::fvPatchField, Foam::volMesh> const&) at ??:?
#8  Foam::RASModels::kOmegaSST<Foam::EddyDiffusivity<Foam::ThermalDiffusivity<Foam::CompressibleTurbulenceModel<Foam::fluidThermo> > > >::correctNut() at ??:?
#9  ? in "/home/user_name/OpenFOAM/OpenFOAM-v1712/platforms/linux64GccDPInt32Opt/bin/rhoPimpleFoam"
#10  __libc_start_main in "/lib/x86_64-linux-gnu/libc.so.6"
#11  ? in "/home/user_name/OpenFOAM/OpenFOAM-v1712/platforms/linux64GccDPInt32Opt/bin/rhoPimpleFoam"
Floating point exception (core dumped)

